** EMOCD A4 -- chassis plate, pinned webs
*NODE, NSET=Nall
1, -180.000000, 85.000000, 14.000000
2, 308.000000, 85.000000, 14.000000
3, -180.000000, 85.000000, 20.000000
4, 308.000000, 85.000000, 20.000000
5, 308.000000, -55.000000, 14.000000
6, 308.000000, -55.000000, 20.000000
7, -180.000000, -55.000000, 14.000000
8, -180.000000, -55.000000, 20.000000
9, -174.048780, 85.000000, 14.000000
10, -168.097561, 85.000000, 14.000000
11, -162.146341, 85.000000, 14.000000
12, -156.195122, 85.000000, 14.000000
13, -150.243902, 85.000000, 14.000000
14, -144.292683, 85.000000, 14.000000
15, -138.341463, 85.000000, 14.000000
16, -132.390244, 85.000000, 14.000000
17, -126.439024, 85.000000, 14.000000
18, -120.487805, 85.000000, 14.000000
19, -114.536585, 85.000000, 14.000000
20, -108.585366, 85.000000, 14.000000
** ... 29292 like lines cut
*ELEMENT, TYPE=C3D10, ELSET=Eall
10353, 13098, 11054, 4245, 19836, 14180, 19856, 19857, 19858, 19860, 19859
10354, 12055, 11949, 3207, 19837, 18540, 19861, 19862, 19863, 19865, 19864
10355, 11949, 3100, 3207, 19837, 19866, 9706, 19861, 19865, 19867, 19864
10356, 13126, 10996, 4271, 19838, 13884, 19868, 19869, 19870, 19872, 19871
10357, 4245, 11054, 2203, 19836, 19856, 19873, 5334, 19859, 19860, 19874
10358, 4271, 10996, 2141, 19838, 19868, 19875, 5018, 19871, 19872, 19876
10359, 808, 1995, 1989, 19855, 2079, 2018, 2082, 19877, 19879, 19878
10360, 1995, 761, 1989, 19855, 2014, 2016, 2018, 19879, 19880, 19878
10361, 3111, 13098, 12316, 4245, 19881, 18587, 19882, 9745, 19857, 19883
10362, 13125, 12316, 13098, 4245, 19319, 18587, 14183, 19884, 19883, 19857
10363, 4245, 13125, 12316, 4270, 19884, 19319, 19883, 5338, 19886, 19885
10364, 13058, 13125, 13046, 4270, 19318, 14182, 14191, 19887, 19886, 19888
10365, 11054, 13125, 13098, 4245, 14181, 14183, 14180, 19856, 19884, 19857
10366, 11054, 13125, 4245, 4270, 14181, 19884, 19856, 19889, 19886, 5338
10367, 2896, 2861, 11743, 2860, 8612, 19890, 19891, 8611, 7651, 19892
10368, 11761, 2914, 11707, 11760, 19893, 19894, 17436, 17437, 19895, 16503
10369, 2914, 2857, 11707, 11760, 8597, 19896, 19894, 19895, 19897, 16503
10370, 11704, 11739, 2892, 11703, 17416, 19898, 19899, 16512, 17417, 19900
10371, 11520, 11521, 2857, 11707, 16497, 19901, 19902, 16502, 16501, 19896
10372, 2857, 2914, 2913, 11760, 8597, 8596, 7669, 19897, 19895, 19903
** ... 14373 like lines cut
*NSET, NSET=Nweb
339, 357, 363, 380, 386, 404, 410, 427
761, 779, 785, 802, 808, 826, 832, 849
1349, 1354, 1380, 1382, 1383, 1384, 1433, 1434
1436, 1438, 1445, 1447, 1448, 1481, 1482, 1484
1982, 1989, 2014, 2016, 2017, 2018, 2067, 2068
2070, 2072, 2079, 2081, 2082, 2115, 2116, 2118
2199, 2200, 2213, 2214, 2675, 2676, 2677, 2852
2855, 2856, 2858, 2859, 2866, 2867, 2875, 2876
2883, 2884, 2893, 2898, 2899, 2900, 2901, 2903
2904, 2921, 2922, 2928, 2929, 2930, 2931, 2932
2933, 2936, 2938, 2939, 2941, 2942, 2943, 2944
2945, 2946, 2947, 2948, 2949, 2950, 2951, 2952
2953, 2954, 2955, 2957, 2959, 2960, 2961, 2962
2963, 2964, 2965, 2966, 2967, 2968, 2969, 2971
2972, 2973, 2974, 2975, 2976, 2977, 2978, 2979
2980, 2981, 2982, 2983, 2984, 2985, 2986, 2987
2988, 2989, 2990, 2991, 2992, 2993, 2994, 2995
2996, 2997, 2998, 2999, 3000, 3001, 3002, 3003
3004, 3005, 3006, 3007, 3008, 3009, 3010, 3011
3012, 3013, 3014, 3015, 3016, 3017, 3018, 3019
** ... 284 like lines cut
*NSET, NSET=Nload
341, 342, 343, 344, 345, 346, 347, 348
349, 350, 351, 352, 353, 354, 355, 364
365, 366, 367, 368, 369, 370, 371, 372
373, 374, 375, 376, 377, 378, 379, 10990
11002, 11004, 11020, 11022, 11048, 11049, 11114, 11115
11116, 11117, 11118, 11119, 11120, 11121, 11122, 11123
11124, 11125, 11126, 11127, 11128, 11129, 11130, 11131
11132, 11133, 11134, 11135, 11136, 11137, 11138, 11139
11140, 11141, 11142, 11143, 11144, 11145, 11146, 11147
11148, 11149, 11150, 11151, 11152, 11153, 11154, 11155
11156, 11157, 11158, 11159, 11160, 11161, 11162, 11163
11164, 11165, 11166, 11167, 11168, 11169, 11170, 11171
11172, 11173, 11174, 11175, 11176, 11177, 11178, 11179
11180, 11181, 11182, 11183, 11184, 11185, 11186, 11187
11188, 11189, 11190, 11191, 11192, 11193, 11194, 11195
11196, 11197, 11198, 11199, 11200, 11201, 11202, 11203
11204, 11205, 11206, 11210, 11211, 11212, 11213, 11214
11216, 11217, 11218, 11219, 11220, 11222, 11223, 11224
11225, 11226, 11227, 11228, 11229, 11230, 11231, 11232
11233, 11234, 11235, 11236, 11237, 11238, 11239, 11240
** ... 487 like lines cut
*MATERIAL, NAME=Ti6Al4V
*ELASTIC
113800.0, 0.342
*DENSITY
4.430e-09
*SOLID SECTION, ELSET=Eall, MATERIAL=Ti6Al4V
*BOUNDARY
Nweb, 3,3
*STEP
*STATIC
*CLOAD
Nload, 3, -0.905772
*NODE PRINT, NSET=Nall
U
*EL PRINT, ELSET=Eall
S
*END STEP
